JAGGlass
yellow
35mg
RhinoSkinbr
chameleons
blingvapes
overages
frontbrakes
airjordan3lab5
innokiniclear30
goodonfuel
tripleAAA
airflowcontroller
naturopathic
uofa
propane
SP3
gsx600
Olympic6
hdtv
PANTS
Classic
HeadShop
coolers
Paul
asian
loseitnow
pulse
tires
elegant
gypsytrader
tobacciana
NO2
55gallonbarrel
ElectronicCigarette
thunder
CapitalHill
crooksandcastles
nikefoampositedoernbecher
spizike
herb
china
lagunawoods
165brZip9764
usedplasticdrums
uplifting
IdahoSprings
k
tvsDiablo
nimbusrda
Three
ranchosantamargarita
Ganja
nicotinegum
dunksb
txt
music
mAh
9999OZsALLDAY
glass
250cc110cc
UNITS
SlumGoldGlass
95
97
turkishrug
hydrogrowroom
blade
americanmadebrglass
SfvOgFrosty
jordans5
coldwatermedication
blowndabberCOMPLETE
Playstation3
Playstation4
Lo
sgwbrstoneglassworks
titanium
bluescreen
growop
hydrofarm
LG
LA
5mmvolcano
cutback
DISCRETE
hot
LS
Navix
medicatedbutter
BioGenesis
healthstoneglass
BensonHedges
bichir
tujunga
SanDiego
tetra
HighCaliper
cigarettes
INDOORgrowingsystemIGS
pyrology
wine
AshCatcher6ArmTreebr
xj
CharlesBarkley
growbright
Purp
85brHalf9764
flint13s
Indooor
fix
12cent
Donation
Ecigar
Doernbecher
TheRetreat
soveritghty
8gb
GPScheaptv
effects
2vinyl
lebroncorks
APV
HydroDynamicsInternational
f4i
volcano
Edibles
ejuice
snakes
concord
highpressuresodium
bowls
grape5
xr
Miamiheat
Hollywood
NirvanaSpecial
PacificBeach
Datnoid
Healthstoneglass
jeromebaker
bearclaw
dontneeditanymore
smg
rm
Garmin
snowboardlights
werecommendthisforcancer
maskroor
Ego
grapes
VertigoGlass
r6
atc
atv
90cc
PaulRodriguez
175galtote
penplayoff
basketball
service
Factoria
ModsBatteries
xiv
bowfront
JOHNNYKILROY
genesis
airjordan13bred
Summit
Storzrastarig
mechmod
legally
Vancouver
yamaha1000
white
marryj
BLACKSOLARRED
tree
regulator
playoff12s
blueraybluraybluraytv
LamarOdom
Lebron
Chicago
executivecircuits
huf
vgo
lightltyused
SheldonblackroorHGS
NeverOpened
metallic
tvwallmount
electronicpipes
yeezy2
adaptors
redcopper
Prestine
macbook
bakerdome
StoneGlassWords
jbj
tech
TotallyWIcked
bomb
cigaretterollingmachines
1memoryfoam
Premium
LaMesa
11115
rico
rice
medicinalmarijuana
honda
Atomizers
cushion
X
DENON
cichlids
Blue4180
avenger
carfreshener
patch
XVII
release
fair
DMP
PS3
Android
NaturesNeeds
pinoy
best
plantknife
itsTrueFire
Bobo300
BuzzPro
forthoseinrecovery
WaxRig
jesusstatue
Amendment6420compliantbr
MaestroGlass
sheldonblack
butane
wtk
cheapdeal
airflow
800mah
CoAx
BluntVapeXbox36ast
adapter
heating
incense
directinjectheady
TRIMMINGSUCKS
VIVII
gsxr750
clickhere
chrome
vapourizer
fro
stadium
Reggie
Flowers
skyda5
victorville
PostModernHealth
Tokyo
kidstoys
80quarter
irvine
facetoface
worked
candycane
PersonalUseOnly
VammoV5V2atomizer
nikeprelude5
IGGY
capitolhill
concord11
Culture
healthysoilmicrobes
EFlavor
airjordan10doernbecher
clinicalresearch
3000FolsomStBoulder
LittleTikesStep2stuff
HOTPINKGRAY
upscale
WeedCollege
potuses
newatmosr2
BallastbrFittings
vaporxvaporizer
chrysler
pitchforks
tops
questlov
aircompresor
philippinesmod
Tvmount
adjustablewristtabs
ls400
sanclemente
PurpleMrNice
caregiver
golfclubs
authorizations
PineapplePurple
Lebron9southbeach
SnapBack
gameboy
cannabisstonepure
bushy
santamonica
Playstation
HiSi
Sentinel
old
usbcharger
keckclip
concentratesglasstube
creep
circ
EJuice
Lifestyle
vaporbunt
fish
sneakavapebrand
Grotek
aqualabtech
fashiontruck
Huarache
tomatoPurp
JORDANXIBRED
releasingadelicious
filipino
JakeC
iguanas
consulting
sob
Hybrid
Cannabus
mocha
iclear16
sheldenblack
sov
mamba
Versace
nova
jane
happy
greencard
JayZ
shisha
stand
chiyou
fluorescentstaghorn
epipe
losangeleslakers
americanhighlymvp
pinnacleplentyvaporizer
fountainvalley
Six
crumble
Hyperfuse
vegetableglycol
cyclestats
allfourwillactivate
hookahpen
NORML
ToroBong
trashinliner
smell
reggae
models
oilbarrels
devol
racerails
innokin
windscreen
YOTR
spaceneedle
yourorder
98
cigaretteinjectoryiendovape
cancoil
AndyD
controllersmedicine
PhoenixSuns
Technaflora
clinicaltrial
WHITEFUDGE
phonenumber
chair
greybrim
wallmountoscillatingfans
818
veg
3cement
810
nugs
highendPCgamingstuff
vaporbrothersvaporizer
Smokeless
WEED
bluecobalt
zzr11
zzr12
headshop
madzmodz
pHup
24MM
shirts
Reflective
motorizedbike
melt
55galbarrel
vWeightloss
oilbarrel
twittercomStrainwise
True
flowerandhospitality
thunder4s
nemesis
s15
artitecture
stickywaxburner
APVs
SouthPark
chiyu
dusts
GELighting
MH
cronus
MJ
Boro
Spectralux
allsizes
GranddaddyGDP
dumpit
lebroncork
REAL
stockton
WormGlass
Stealth
marijuanapumps
oceanicbiocube
XVIII
MilitaryBlues
naturopathdelivery
marbles
SantaClarita
TwentyOnes
Staywell
scratches
spearmint
wool
NikeMag
TRAINWRECK
airflight
jordan7s
Sevens
cannabisaccessories
malahierba
shawndaddy
gsxf600
paxploom
s4
functionalart
thunder4
kdv5christmas
Eagle
blasting
STW
STP
grencoblingsativa
PS510
FederalWay
natural
ss
sv
vaporcigarette
mango
truck
sb
sg
FITTED
zmax
repair
ttr
BigfootGardenSupply
Embur
NewEra
Verizon
watervapor
toro
hashish
oversize
ToroGlass
Bordeaux7
insomnia
usedplasticbarrel
records
disposableecigarette
catchertorothe
slymedisk
arizer
SUNMASTER
handpipes
nikesb
Yellow
lastshot
cloupor
quarter
revere
turtle
water420
square
FRITTEDDISC
fuji420
FRITTEDDISK
Bermuda
marijuanaseeds
zachpuchowitz
amaretto
OGKush
XBMC
22mg
uptempo
Kayfun31
allstar
inhales
mostlyheadyglass
Duckweathersealstripping
WWEAllStarsforXbox360
chevy
qt70
MerryChristmas
Buenaparkbrcostamesa
glassheady420
HydrotonIdealAir
Royal
ong
one
55gallonplasticdrums
jeromemedical
2
vaporpengpen
10Deep
flatscreen
WorkingOut
Iusedsmallbudsandbudduff
airmaxtriax91m
waterpipe
Samsungtab
Seven
Foams
DiamondTurfs
SmokelessCig
Titan
filipinoatomizer
ProVari
LEDTV
future
Businesses
pennypennyspradalvGOLD
russia
crashcage
900rr
galaxytab1
growlights
iclear30
kobezoomiv
tastes
DipNGrow
sap
saw
zob
butters
vaporizerweed
note
destroy
villapark
Coolfire
kawasaki636
lawn
illadelphcoil
Quarters506070
evappyrethrumbombs
joyetech
Chem
salt
cobra
onepossiblesetup
Nines
waterdrift
smokesmoke
perculatorbowlsgw
sativa
cloak
icecreamsandwich
paidresearch
AirPumpBrandNewEquipment
ps2ps3ps4psp
XII
hcigarm16krakenjoyetech
herbal
XIV
XIX
30Case
laguna
Cannibus
bombs
YES
lowdonation
snapback
vision
ToroBravo
hempoil
canibis
EHOSE
WhiteRhino
wolfgreys
Quai
testimonials
joytech
teens
ShatterdaysShatterDeals
electroniccigarettes
SPECIFICATIONS
clearoil
screen
dome
concentrate
SPICE1
StorzBickelVolcano
500Kick
mana
concentrates
plecoAquarium
backpack
Deadstock
mintconditiongasmask
AirJordan
electricthcoiljuice
sentinel
Dunks
boat
420friendly
Kobe9Inspiration
Losangeles
kevindurant
i502
15mg
laney
BlueDreamandTanaga
300w
cottoncandy
discreetness
mobiuswater
disposableecig
airjordan10steel
reebok
marijuanavaporizersforsale
rapid90secondwarmuptime
canon
Jebo
iphonetouch
323
coolingsystems
secretstash
down213
Silverlake
dynogrow
Bloom
NikeDunkSb
I
conicbudsglowwithaheavy
vivanova
XVI
edger
bigbang
makesuretotakeslow
Gamma
GlendaleandLosAngeles
5bulbs
dryherb
Megatwix
SourGlass
flugame
costs
pewter
genie
Skillet
gdp
215
PS350
213
recycler
HBG
TeslaVaporizer
cementiv
tourmaline
Gblower
magicflightbox
trimmings
ToroDome
testsubjects
seattleweed
glasshydroponicjbd
metalhalide
kicksBORDEAUX
Olive
sprockets
hybrids
toroglass
LebronJames
Controlbox
kashtray
dark
Micro
atmosw
vacuum
keywordsmw2
withaFruity
Fear3forXbox360
62
tsunami
Sharp
RedSuede
dabbers
30
magma
rcw6951a
icepinch
Tribute
aymie
FlameKing
tube
RanchoSanDiego
cannabis
firsthill
919
910
skillettools
scientific
tiffany
DaytonBlowers
bagua
throwback
Hogsbreath
FoxFarm
GENETICS
Radium
CHUPPS
smokelesscigarettes
watersmoking
marshmallow
Leadville
sterlingsilver
moped
pivot
250ozSimple
hex
Toshiba
bubble
Northhighlands
LosAngelesLakers
Caramelkush
AwesomeFlavor
clones
ACunit
Fitted
280ozbrbr
ControlWizard
cyclops
500
topshelf
350mah
besttasting
ohm
ac
gong
mobiushookah
tshirt
aw
steeping
cream
Tipowertitaniumnailbr
hydropurpleUrkle
aromatic
710SiliconeContainers
Northgate
19cuftColoradoRockies
puppy
oilcatcherpipe
SouthBeachbrNike
northface
herbs
undftd
DCGlass
1080p120hz
34mg
tiger
ProVape
cpd
FruityChronicJuice
quitsg
BenWilson
original
tankelectroniccigarette
potleaf
littletonBroadmoorWellness
aircooltubeorboxed
ceramic
domeartz
budtender
easymoney
cheechandchong
Evic
tv
tobaccopipe
Blazers
ti
GooglePlay
ChronicWidow
1300mah
psvita
orpoisonousormaycauseharm
lawnmower
t5
3wheeler
OfficialVersaceRings
Rattlesnakediesel
small
AmericanHydroponics
costamesa
torobravo
RoyalBlue
MOLDIVITEamp
penessentialoil
2x4Tent
12brI
waxpiece
clock
RooRTech
glasstobacco
nurse
xenosaga
bikenight
GreenCrack
hash
Lumenarc
deltabox
Etcbrbrbredc
Xbox
Suede
waterglassheady
painreducing
EXIBIT
downsteam
BlueDreamCannaButteramp
cessation
welder
sweetness
vaporizer
adidas
Cardinal
reverseosmosis
weedmarijuana
workedglass
PryrologyGlass
Wubbler
858
poodle
MiamiHeat
6
Russian
teen
door
freshwaterafricancichlid
tees
r1
swingarm
FRENCHMONTANA
portablemarijuanavaporizer
Adidas
science
dualcoil
farmandgarden
hydroponicmedicalmarijuana
Panasonic
Guppy
Yamaha
calihats
airzoom
marijuanapatients
NDunasStreet
KDIVGOLDMEDAL
nikeair
weedstar
Fusion
phxglassheavy
storzr33
plant
buymedicalmarijuana
seasideheights
kushbong
6arm
nocracks
apocoline
authentic
RSO
privatev2
JeremyScott
wrench
foampositesilver
iClear30coil
Bongs
headyglass
jordans
thatbong
mexican
Purple
trade
Countdown
snowblower
scott
FremontBallardWestSeattle
broadway
buynewones
smokelesscig
laces
jordan1
jordan5
volcanowatershawnwhiteamg
elips
dabsfyc
Michael
greenlake
weeds
watercigarette
XXI
eighths110
doublemac
raygun
airpumps
Polo
AirGriffeyMaxII
BlackLasers
airconditioner
bubblebags
Zong
IX
Balenciaga
barkleypositemax
glassbongwithglassstem
conceptualizing
down420puredwb
BMI
aircooledhood
BMW
wallmountsnakemarijuana
Toyota
elicent
Nine
weed
DarkDogz2
drypipe
II
19thStreetonthenortheast
MGW
cyanide
integra
flavorcartridge
governmentalfees
orwhereever
organalabs
PHXGlass
ozTopShelfLemonDrop
hitmanworkedtechnologies
kobe
CartomizerTanks
electroniccigars
heady
BHOwax
Weedwackers
mmmp
600aqp
BlackandRed
oilrig
vaporizersforweed
KEF
PS5105
ohms
Gaminglaptops
420Event
Rheumatoidarthritis
bhm
bho
personalvaporizer
naturalproducts
gascans
odors
EarthJuice
stemless
ChrisPaul
Recreation
dirtbike
grandia
inexpensivetvs
16mg
RagingBull
TOMTOM
paidclinicaltrials
SaferGro
barrel
microsoft
280ozFast
paidstudies
gold
Foamposite1
Dynagro
620630nm
DurotechIndustries
KindCreations
Dunk
wraps
highlyperks
technic
edibals
Penguin
Sixes
longboardsurfboard
Wifi
TangerineKush
Lakers
nikelebron11christmas
FHDFutureHarvest
glassioliteHighSmoke18mm
caseilladelph
SYNGlass
caramel
enail
InnokinSVD
RiversideCounty
dabudda
310
potent
ps2
flavours
Gravel
KDIV
vitamins
Venomenon
ARTYGlass
pickup
Airmax95s
naturalweightloss
Sony
61723
refills
losangeles
Tustin
Stackable
Snapback
corvair
ChicagoBulls
notincluded
opas
NikeFree
stashnuginscence
orbrig
frosty
glasspipes
daBuddha
810series
protools
belt
EgoBattery
domeless
JBREDOUGIEKENT
jordan13bred
BadReligion
fire
davinciVaporizors
endtable
NikeAirForce1
maryjanebrGreencrack
ginger
woodsplitter46oz
medicalisheldonpure
funk
Concert
AirMaxTailwind
evapwaterchillers
airjordan4thunder
NikeSBNorthCarolina
growingexquipment
55gallonplasticdrum
mota
pound
Sativa
lapalma
atmosoptimus
bubblehash
audi
floraliscious
keifBho
CriticalMinds
yeti
airforce1
55gallonplasticbarrel
Solatel
snail
cigar
AirJordan5s
botanicare
Camel
noiphones
tankjoyetechevic
allergenic
grower
Jordan6infrared23
2fourfoothoods
Quality
Halfs45andounces80br
hydroponic
SERATOSCRATCHLIVE
aroma
stunt
cheapelectroniccigarettes
trackbike
eerl
kieff
Organicare
grapefruit
ForSale
Reflectors
instructionsbook
mancave
vapehookah
Downstem
OK
allmanufacturing
Ecig
airjordan13
OG
BowlPiece
iphone6
OZ
collective
iphone5
WATERTANK
spring
palm
b2
madebongjbdheady
sprint
smellsandhighs
algaeeater
420pipes
happyhigh
novelty
burnwaxsticky
jordan13
jordan12
Jumping
comeswithbowl
blackberry
NUTRIENTS
odor
HealthstoneGlass
AutoPot
matadormonitor
sheldonvape
br
picoftheblackberrykush
louisvuitton
egotwist
minidrypipesperks
SeattleDowntownbr
NikeAirTech2
AuroraInnovations
26mg
wreckedbike
cloudvape
pHdown
SheldonBlack
BlueDreamBliss
NEW
lebron
roastedpeanuts
Used
Vaporizing
airjordan8bugsbunny
custom
bubbhookah420
Smoking
pinoyatomizer
potdank
inches
Moba
Gucci
medicalquality
GDP
cig
200ft
Indoor
us
Lakeside
BluedreamBliss
baron9s
alarm
cartomiser
plentyvape
cartridgeforcloudvape
phantom
thugs
itseasiertoclean
retrovnds
nicotinepatches
cannabus
AnaheimAngels
waterpipebrwaterpipe
camo
elements
eliquids
Katanamaintenancekits
domelessnail70
DallasMavericks
65cc
stuntparts
agi
aga
summit
ManifestGlassworks
fresh
downDrugpipesglass
icewax
glasswaterpipe
Beyonce
CoolGrey
trashcatchergtr
Twentys
DoKToRDooM
ceramicfilter
Designer
5mmbong
brmarystatue
Winterized
LittleGiant
Glass
Goldfish
TruckStopsSeatac
garden
Candy
chimbus
magic
dopeassbong
domeperc
obesity
Seattle
Winchester
SM90br
shrimps
AeroSmith
n64
weedsecho
RCcarnboats
WhitewidowX
radioactivecarcinogens
2000brBORDEAUX
Raindrip
moschino
1400
9MM
shaqs
led
sculptures
punch
ibis
GirlsScoutCookies
brbr64
3DTV
great
requiringlessfertilizer
huaracheslaney1s
12insidebuckets
Jordanretrocdp
AirTrainerMax2
320ozMrFrost
rda
popcorn
NicotineLevel
glassblowing
WhiteCement
sgw
DefiningMomentsPackage
tools
sketchbook
Korn
zip
XHaler
Homeandoffice
glasss13
zii
vaporizerpenbratmos
f650
busa
showerheadpipe
shawndabvapor
drill
HEGOTGAME
thebowlsizeisdeep
benz
high
slimled
fighterjetfoamposite
45brQuarter9764
LeftCoast
peanutbutter
swisher
2DTV
animal
Marineland
saptiva
1oak
paintball
burnbarrel
garageshelving
PreCooler
volcanoleftweedpipe
Apple
clinicaltrials
carverego
element
vaporizerbakerbong
Skycomish
Glassextenderbr
extrafat
TAXI
hasalongerlifespan
heater
nocturnalwonderland
designsroor
ragon
glassglobewithenail
BROKENOK
mmjmarijuana
lightdepmarijuana
2014
2011
2010
2013
2012
designs
variablevoltage
wrongwroks
Entourage
VII
kanger
dabber
FireRed
designsdwb
smokingvaporizer
Anniversary
120VoltCharger
edibles
ToroMicroFroth
GhanjaOil
miamiheat
14zip70
MaryJaneGrass
hyundai
Fourteens
collection
SunValley
LifeStyle
homecloudvape
gallons
kegarator
Jump
centerfordiseasecontrol
sacramentovapor
AeroGrowInternational
Pros
JBD
TOROGlass
dirtjumper
festival
agat2
OrganicLaboratories
5660WAlamedaAveLakewood
KobeBryant
airjordan9coolgrey
Lebronjordan12obsidian
rayban
GroProOrganicsStrongLawn
moncler
MagicFlightLaunchBox
BlackLazer
agate
nomajorcosmeticdamage
steep
bing
MissionValley
ninja636
AAA
dualcoils
Westminster
750
One
medicine420
omninail
tobbaco
RELIABLE
outdoorexcellence
stickywaxburnervape
aromizers
classy
400W
anypestsordisease
jm22
device
Godsmack
stealthfoamposite
volcanowaterpipe
jordansnba
bred
brea
400w
wouldliketoseelargerpics
vaporizorvector
painting
weedroor
theblackonyx
HomefrontforXbox360
passionfruit
Dalen
12zip140crumble30g
greenhouse
ihybrid
hops
55galdrums
SamsungLED
HeadfordGlass
Seachem
parabolicsmoke420tree
clinicalstudy
quittingsmoking
TimeCapsule
KIS
rapper
Prop203
NikeAirMax
snaphats
RocAFella
btu
crimsonfoams
erbphx
microgpen
skateboarding
coils
PV
PG
Penny5s
piston
strongsmell
BlackRed
storezandbickel
necksalt
CliveBates
chubbler
HumboldtNutrients
purplehayze
pyrethrumbombs
AirGriffeyMax1
Halen
2064538958Mmj
bodyfat
etc
DISGUSTINGbrbrbrbong
puff
Aeroponic
Freeek
whiteashpure
lavatube
indica
ca
mjstones
cr
oakland
powered
Phone
EgoQuitsmoking
aquamarine
vaporpensmokelessliquid
trinity
glassbrdwb
ColoradoSprings
shattercrumbleprop215
hortilux
laser
thickglass
toolbr
Granddaddypurple
DublinHydroponics
headfordroorbubbler
BrandNew
rba
vi
Pipes
140half
750W
vv
tattoo
brbrKeywordsweed
GilbertRossMD
microsworkshop
android
beeline
jolliesmedicalbuds
Medical
Grey
v2
phx
onacornerdesk
Midas
dust
IceCatcherbr
CaramelKush
Strap
Ballasts
Challenger
355
350
12000BTU
grandopening
immortalizer
glasspipesmarijuana
liverock
Multiplesclerosis
microsd
vail
hufquake
blueox
medicalonly
BORDEAUX
stealthfoams
five
trimeter
chairs
wrkd
weedjars
garage
GSCthinmint
ashcatcherbrdownstem
125cc
KingJames
paxbyPloom
xboxone
hypebeast
Jacksonchameleon
tasteisright
BuildaBong
inexpensive
LarryOG
Montana
balloontypevaporizer
electronicpipe
NightClubs
foodtruck
opalmarbles
zips
Oilrigs
dontwait
smoothonfront
ladyliberty
unkle
angeles
nikekobe4prelude
seeds
donationsareexpectedAlso
vaporrig
ELiquids
954
AlexK
dunkhigh
gpenmini
negotiable
hydroponics
brownies
Kobe9Masterpiece
sv650
Alexk
anotherisashowerheadphire
largecapacity5bux
waxdabber
SeasideHeights
delivery
Paxheats
relapsetosmoking
xbox360
Bichir
Foamposite
BRANDNEW
eroll
smooth
Agoprohero3blackedition
HinduKush
WILLNOTSELLSEPERATELY
problem
foamsfoamposite
LiquidKarmabr
320ozbrbrMrFrost
NOMEMBERSHIPREQUIREDbr
GROUPS
Rigs
Darwin
obsidian12
DAB
hps
trials
Converse
2x4whateveryouneed
EgoFlavors
Prelude
illusion
quartz
asetof5gallon
LCDTV
marlboro
smokelesscigarette
nikes
ghost
filipinomod
parttime
Pyrex
OliviasSolutions
70cc
gsxr1100
DWreck
passthroughs
ashphx
shishailladelph
magnetic
br420
mjhydrogeneralhydroponics
yamaha600
danapoint
Infrared23
Ecigarettes
prop215skunk
bike
cannabutter
CypressHill
compassion
blanket
Pipe
ashbrcatcher
FoodandDrugAdministration
Military
month
Agrade
tickets
MAV
bubblers
c02
PlayStation
DRYHERB
gardengrove
stateissued
filtration
GoogleTV
Mazda
Ones
ATMOSRAWJUNIORVAPORIZER
whitewidow
cannabisweed
dutchcocao
weedsdank
gsxr600
headford
Damienmarley
smoke
EgoSmoke
vapors
Inferno
bongsdome
jordan1chicago
sweater
Vaporizer
blueberry
HeMakesSureUGetBaked
Petcages
Medicalauthorization
Butane
HeatTempFarenheitCelcius
hasyellowamberlooktoit
TeamRed
nodisease
8bagBubbleBags
EgoTank
cruiser
40glass
1998
work
worm
Tourettesyndrome
growyourown
era
kayfun
Arowana
BlackLabelSociety
atmosraw
BlackCement
jbdpipe
GoldWriting
Smokingpipes
methanol
hitman
beach
CASHONLY
xboxnewgames
lao
CaseyJones15g
175gallontote
HandTorch
lac
hydrosrhydro
BioAg
SolarRed
stemlineprop215
green
CAPHILL
sb420
office
raidersnation
Sammamish
plastics
modesto
ticket
SerenadeGarden
cartos
Salt
recreational
Nutrilife
CultileneRockwool
coffee
NOTRADES
454
safe
GrowthTechnology
band
bang
350ozMidShelfCaseyJones
glasstanks
UDistrict
piacolada
rocky
diffuserconcentrates
rocks
ASKABOUTOURTEENS
dings
SupremacyMMAforXbox360
2003bmw
lifted
stemlinebrprop215
Jordan4Lab1
Parrys
OnegraveNo3
perculator
vegeoil
halendomepropperks
VG
diesel
Downtown
VI
nikekobe8christmasss
freecoffee
JoelHalen
arizersolo
standard
lollipop
CYNEX
stareter
beakerbottom
AirMaxLunar
dryherbchamber
blackout
ECIGARECigarECIGAR
champs
rastajeromedesigns
Metallic
thick
electronic
dogg
SKywalker
HOLDSWATER
airs
rates
Nintendo
power5
kiwi
miamivice
Rare
wicklessceramicrods
Backup
greentrees
CO80234303568975564
ashmmj
8023464
kts
5mg
iron
whatthelebron
MrNice
borofarms
PureGlass
Maestro
contents
FYC
Flight
blackheadford
brookhurst
PickUp
snowflake
OrcaGrowFilms
airtrays
sgsovereignty
AtmosRx
brProp215OnlyPlease
JORDAN
Patient
cronic
Bong
QP
QS
anonymoustracking
timerboard
bracket
nevertriedon
sun
fitted
kdvelite
keywords
CO80222MedicalSalesOnly
nikekdvaway
hydor
DCT
cloudpencartridge
cappuccino
dj
di
leisure
du
Loud
ds
OIL
Clinic
freshwater
steam
Wehavevapepens
northernlights
BlackLaser
reversesProp215
lemonade
LukeWilson
stoneglassworksbrglass
Aquaclear
co2
draws
LeisureGlass
Water
smokeup
PLEASEDONTASK
shields
applewatch
1channel
dwbbrsheldonblack
paidstudy
bongroorbiohazard
AndroidTV
hemps
carpediem
flipflip
Eighteen
CO80452brbr
cod
inlinefan
com
Bulbs
cigarettestobacco
piff
ehookah
DevolGlass
VaporGenie
DirtyRicoGlass
refurbished
mflb
300brQP9764
Thirteens
includingsomefertilizer
icecatchersyn
Cinderella99
postmodern
SanFrancisco
Hoop
air
Sativas
ducting
NewECig
NikeAirMax1
cone
hyphaefungi
hoockha
EgoTwistSpinnerVision
glassbubblar
plates
14female
foldingchairsets
evic
retro67
peculator
digitalballast
BentGlass
aglobe
hand
clownfish
IFYOUDLIKETOBUY2ORMORE
6boyhighboydresser
beaconhill
Airmax1safari
drip
2inchesinHeight
prop215sb420weed
HighQuality
norco
Portland
thc
HighClasscigar
Sheldon
gods
doublemacro
forthebiggest
simpleandquickMoreHashes
jordanretro67
airjordan10bobcats
bodymass
Eights
mix
Gar
Thirteen
waffleperc
plasma
lcd
boxer
unknownyardwaste
KushKushGSC20
factorysealedtelevision
airjordan5fear
vapebrvaporizer
sexyoil
xbox
computerscarsstuff
cirrus
Envy
taffy
OliveJordans
ECigar
samsungtablet70Android
boro
streetbike
purple
GrowlabHorticulture
ggts
128680128680
diffuserbeads
1galofHeavy16BudB
1galofHeavy16BudA
36mg
P3International
ViperPit
coral
WhiteWidow
jordan67goldpack
newandusedballasts
Tattoo
thermostat
GoldenKushGodsGift
suzuki600
nikekdv
gymgreenfoams
backtothefuture
Tray
AssassinsCreedforXbox360
BeastieBoys
atmosRx
ganja
smokingpipe
wax
appleipod
charcoalfilter
Sanyo
guppies
RivalryPack
NikeAirTechChallenge
Belleville
nikekd4
bred5s
ganjamedicalliblack
4arm
Torch
pantherchameleon
medication
Fittings
flat
samsungtabletgalaxy
HQI
xiii
saltwater
freeit
WaterPipe
PGVG
Blunt
4518
DriWaterTimeReleaseWater
topped
Givenchy
Running
300300cCharger
ecigars
detox
prop420
concords
hitmanroor
manekineko
opal
softglass
22depth
Elephant
raidernation
rjoint
AirMaxJR
grape
fastshipping
Ipod
flash
SokolGlass
waxes
jvc
NikeSBGeorgetown
Lynnwood
DannerSupreme
Rolex
alwaysontheGo
nikedunksbAirMax90s
iolitewispr2
vegas
kitten
Jordan15Lebron9
Eflavor
Jersey
margarita
Froth
schoolbus
gun
yardtools
discrete
dwbbrvolcano
RY4
smokelesstobacco
htg
staywellresearch
EYEHortiluxLampsIwasaki
Orange
makinghash
JORDAN11BRED
plasmatvsmartTV
cargo
menthol
Ford
XsXsretro
Lows
apairofraidersearrings
PENcatcherdownstem
PunjabiTV
oscillating
PotSchool
dutchmaster
redskins
goldfish
bongglassmedicateWeed
lakers
trial
Ganga
WhiteMountainMedicine
pillow
moreedibles
gamecube
qnail
flavors
FishTankFluval
waterbarrels
live
pipessmokingCOMPLETE
club
raincollection
cannabisdelivery
batwing
MMj
sb215
Jordan1Baron
chemicalfertilizers
airjordan3doernbecher
thisisntcheapChinashit
car
cap
cat
purge
halfcent
MMJ
cac
whatthekobe
tobaccosome
PlantersPride
Bowlpiece
vaporblunt
cultivate
and12sare7090
NOgimmicks
atmosnuke
EgoQuit
fuming
CarverB
BlueDreamdankchronic
dwreck
dirtyshowerheadandvaporizer
ducati
vaser
jordanhoody12
GreenAirProducts
mouthpieceandbaseinablue
corona
strawberrycough
ghb
bluox
pussydefiningmoments
disposableecigs
trippystix20
pinkfoams
growtent
MusthaveValidWAIDbrMMJ
no2
cola
EgoELiq
adultsonly
pluginvaporizer
NorthernLight
Dallas
whiterhino
Avon
55galdrum
Tvinstallation
half
not
Lebron10XBarkleyKDs
halo
james
JimiHendrex
andraretagsroor
DocsSimpleSolutions
jbdpipebubblersmoking
BioGreenClean
newyearsresolution
stemlinestemlessamg
WARRENG
challenger
8arm
Bluedreambliss
ex
year
Suzuki
es
Carolina
callofdutyblackops
dirtywhiteboys
brbrCALLONLY
tiffanysb
marine
card
LusterLeafProducts
Bavarian
transition
domes
NikeSbs
mothership
510
CountdownPack
FortCollins
iPad
dumpidiotdark
bling
626
ACADEMIKS
ecigecigaretteelectric
purecatcher
Countdownpackage
ALLshoesareauthentic
Pure
Inch
xp
Diamond
REFERRALDEALS
Icefilms
FANTASIARECHARGABLE
ColumbiaBlue
courier
GrencoScience
flavorstrength
filipinonimbus
quad
thai
flowers
greenwood
glassnail
55gallonbarrels
vaporxxrt
odorneutralizingagentona
320ozCaseyJones
fruity
catcherclearomizer
businesscomesfirst
VirginiaSlims
waffleper
kikstyo
Sprite
bongbrwaterpipe
HASTHEWEEDZ
nimbusrebuildable
hookas
equipment
hookah
nimbusclone
waterglassdiffuser
price
yourewastingyourtimebr
FruitychronicJuice
portablevaporizer
frontrangedowntown
SOLARRED
ecab
RonnieFiegnewyorkcity
classicvolcano
wacker
sunset
professional
bixbite
lebronxhazelnut
canabis
tvinstallations
upgrade
nutridip
title
Fours
ifunsureofuse
Egos
largecapacitybrbr5bux
withnochips
pH40
excusemyfragrance
granddaddy
jellybean
cannon
sigelei
openvape
cheapvaporizer
homegrown
leather
Feliz
Xboxone
email
metroPCs
concert
Apps
900w
hoes
brHalfsninty
unovapor
sport
ridingjacket
crawfish
3
Xbox360
SummerAthleticsforXbox360
zobcatcher
ROOR
deliver
PauGasol
drose
airmax180
concord11s
purplehaze
EgoChoice
installation
vapepen
airJordan
fireOGGirlScoutCookies
wheels
TheCure
Ralphx002490Bellville
BlueberryKush
NikeSB
DiamondSupplyCo
hvy
blackroor
renewals
triyingtogetatleast2G
PENS
18mg
retroFluGame
NikeSb
18mm
HIVAIDS
Tanks
COCO
LAVATUBE
nikon
stems
titanumnail
ruby
smoktech
CashCrop
cloningmachine
chinatown
20inch
lancester
girlscout
wallmountbombs
cigs
soil
IfnoDoctorsRec
Azul
bowlpiece
Chillum
Opinicus9
bestweed
sb420bakerdome
foam
madefromstraightnugs
fruit
KushKushGSC20g
GoldWritingbr
lebronxblacksuede
cheapwaxatomizer
charger
pitbull
cameraTabletsipod
XXIII
itouch
TRADES
theLakeside
watersun
ounces
touch
ps3
ps1
ps4
AdvancedVaporizer
sheldon
Kool
evapcoolers
desktop
humbolt360electrical
COOGI
roorbong
steeldrum
SonofMars
amg
Vaping
amp
psp
weightgain
propyleneglycol
pounds
Shox
iphone4
foamposites
usermanual
nimbusreplica
Shoe
batterygaspowerednailguns
Santee
greenery
noipods
IPOD
ifyouwantresale
HazeOG15
12bar
itorch
Mars
Frontosa
PANAMAX
shoehead10deep
Mary
splashguard
AirMaxRenegade
thickglassrig
Inches
unlocked
glassbubbler
GeneralHydroponics
BRED4
nuggets
Lenovo
prop215
prop214
Wifif
Easytomount
Youchoosethestrain
exotics
srh
motorhomes
kingglass
legalchangestoecigarettes
barrels
grandaddy
ronniefiegmiamibeach
zmaxmini
SMOKEheady
Amendment6420compliant
cubancigars
deadstock
roorROOR
powderblue3s
glasspipe
GreenBean
wigwag
jordan5firered
low
fixture
COOLGREY
ploom
215bubbler
40eighth
Original
onlygrowdifferentOGstrains
activeair
ballast
sensimillawax420
sourbrwaterpipe
Crmebrle
KOJIGlass
600
CuttingEdgeSolutions
showerhead
nerf
F150
CannabisSeeds
you
More
Yesca
treesSB420
nudie
14mm
holywaters
VanHalen
drift
thca
burnbarrels
LebronXI
medicalbrvolcano
foamposite
LuxGlass
bred13
CROOKSCASTLES
ortheHEENail
mp3
Renton
FDAapproved
Eight
waterpiperoor
HarvestMaster
DarbyHolm
royaltyvape
CMFT
airjordan5blackgrape
watercig
KevinDurant
1plasticgrinder
Bentley
ysl
Gavita
givingthecleanest
xbox360console
WindowAirConditioner
elhefe
cookies
cvr
metaldrum
enhancement
freeek
prop215brTagsheady
prop215weed
TANK
asu
nano
320ozbrbrCaseyJones
lurch
crecerbandeja
VariableVoltage
strong
colored
chronickush
maybe4
NikeAirMax2010
NikeAirMax2011
trainer
wallingford
S4
errl
toys
superclean
Burburry
chestnut
turbo
bowlsheldonjbd
voorhees
So
Sb
Atlanta
nikekobe1prelude
mayjane
Comfortable
SJ
EgoVaporizer
nine
aircooled
Viera
history
f3
f4
CAP
redemerald
AirMaxNM
silika
16gb
Pakoh
andwhatkindbr
HiSiGlass
keif
kobev5christmas
ego
crafts
inline
vaporizercartridge
dream
mobiusignorewaterpipe
andbickel
help
Hdmicable
ce6
ce5
ce4
sz85
reggaeglass420
Throwbacks
OFFICIAL
Menifee
50eighth
18mmfemale
Evolution
food
alkalinity
gsxf
utvs
yz
BobMarley
ninja
HitmanGlass
JOPGlass
foampositeElectricgreen
trailer
electroniccigaretterefills
heavy
etcBONG
herbsbrkeywordsmmj
PIONEER
Retro
freewater
Everett
jolly
cbr600
7
blackice
dunk
Imaskingalotrightnow
losangelesmomentspack
dirt
losepounds
pug
Breds
algae
Boston
Intermatic
hoodreflector
ecigrefills
diffuser
Kevin
TrainerHuarache
chronicpain
Marjuana
weeddispensaries
dabbing
droid
maple
Budder
sheldonbonglux18mm
OGkush
EZClone
banana
placentia
Ventura
306series
jordan
FloridaGarden
comnes
financing
janoski
collaborations
QuickStrike
juice
ioliteoriginal
highendglass
Yoyo
bubblerhitmanbagsherbtoro
ratings
ogkush
torobong
carbonfilter
honeycomb
bowlsheldenblack
1DRYPRODUCTbr
Concentratesamp
SunSystemSunlightSupply
lowcosttvs
iClear30s
watt
Thc
70eight
clear
bongblack
180half
clean
Datnoids
Springs
tubes
Jordancountdownpackage
tincture
vmaxKeywordsecig
3x3
Redmond
Ladle
scooter
Fourteen
Lcd
workedtoro
Grow
treez
trees
VapeAnywhereCe4
atmosthermow
OG8Reflector
Maxima
catcher
tmobile
Nineteens
Marijuana
FallCity
recommendations
Rolexmadden25
greatforsmoking
kushcreams
FlatScreenTV
HiSi420
blackstar
BlackGold
nicoderm
99OZ
Geohumus
harvestmaster
JordanBrand
GIRLSCOUTCookies
lagunabeach
VaporBlunt
Hare
QuadCore
jordan12obsidian
Sherlock
eggplant
CONCENTRATES
gs500
CartridgeFreeDelivery
SmokeShop
battery
electriccigarettes
takecare
soldballastandbulbs
Wax
andkeepsmesafe
internationaldisctrict
Eheim
slinger
jeromebongs
MaxiJet
California
sbdunks
Ballard
kronik
jeypsvaper
imac
pacu
airforce
azatrol
rope
conventioncenter
Hotels
FRITTED
LemonDropGSC20g
ghostkit
KobeIXInspiration
michaeljordan
shad
InlandEmpire
dustproof
used
HITMANGLASS
fatty
3gs
overweight
61er
DwightHoward
k200
toxinfree
plugs
PINK
gsc
Ten
PURE
moneyorders
akihoshino
bongwaterpipe
medicalmarijuana
760
quarters
CeramicHeatingElementCover
granddaddypurple
1qrtofclearex
DenverPatientsGroup
mikefro
Football
cherries
Berkeley
Biohazard
acrua
game
skyposite
waterpumps
toyota
manifest
eel
pippen
plusdoubledoorsforthelift
wintergreen
cones
brakes
evape
Breckenridge
mustang
HighGuyCanadianHandBlown
delivered
br180half
FoampositeOne
sheldonilladelph
roastedalmonds
CHEAP
AMG
santacruz
airjordan5laney
cashonly
lebronxcork
run
rum
CHOCOLATEBARS
AirForceOne
stem
raspberry
aswellasThousandOaks
NEWYORK
bking
airjordan13playoff
caretaker
1vapor
zzr6
smelly
Honeymat
saucony
WeSC
Boulder
awardwinning
zx6r
Sixteen
12zip140
himself
fairings
reef
russian
info
THCpills
Irish
skull
grinch
Scissors
driptip
catcherilladelph
newandusedherbs
Recreational
Smarthdtvs
spacejam11sChicago
EgoChance
BonJovi
Drsinformation
insomniac
TV
rootsreggae
electrical
TH
nau
forge
bickelmadeclearomizer
draw
EgoAtomizer
smokingsafely
AJ
drag
bowlswaterIndica
Dillion
e
SourDieselamp
blend
airjordan4greenglow
airjordan4toro
AMGGlass
Tradesaccepted
Perfect
gt
gs
egodomeless
gg
proposition
OsramSylvania
kato
Crimson
ammonia
Hydro
compact
plasticbarrels
LEBRONXCORK
brbrKeywordsMedical
Eminem
friendly
Clarity
Skimmer
NCAAFootball12forXbox360
lenbodyClassListlength
cleanfruitytaste
footlockerhoward
Camry
button
headedwest
glasswatermaclow
Premio
khalifa
weedpipe
nikePleaseIgnoreBORDEAUX
boots
300DeltaNine9
lebronelite
IIIVX
paintings
Roseville
cell
SATIVAS
doubledream
drags
newyork
eminem
Airmax
Armani
Green
280ozbrbrLemonDrop
PhreshFilter
Nicotine
datnoid
xtrasun
MARIJUANA
DrPepper
blackberrypearl
glassamericanvolcano
Minimum28thsfordelivery
wii
Collezione